Circuit: * Z:\home\matias\Documentos\DispositivosSemiconductores\repo\black-bullet\TP2\LTspice\simulaciones\Draft1.asc

Direct Newton iteration for .op point succeeded.

Date: Sun Oct 19 13:50:25 2014
Total elapsed time: 0.049 seconds.

tnom = 27
temp = 27
method = modified trap
totiter = 2100
traniter = 2090
tranpoints = 1046
accept = 1046
rejected = 0
matrix size = 1
fillins = 0
solver = Normal
Matrix Compiler1: off  0.2/[0.2]/0.2
Matrix Compiler2:       4 opcodes  0.2/[0.2]/0.4


