Circuit: * Z:\home\matias\Documentos\DispositivosSemiconductores\repo\accittuvaz\TP2\LTspice\tbjphillips(ICvsVCE)25mA.asc


Date: Wed Oct 29 00:16:39 2014
Total elapsed time: 0.093 seconds.

tnom = 27
temp = 27
method = trap
totiter = 1009
traniter = 0
tranpoints = 0
accept = 0
rejected = 0
matrix size = 6
fillins = 0
solver = Normal
Matrix Compiler1:      20 opcodes  0.4/[0.3]/0.3
Matrix Compiler2: 462 bytes object code size  0.3/0.3/[0.2]


