Circuit: * Z:\home\matias\Documentos\DispositivosSemiconductores\TP2\LTspice\tbjphillips(ICvsVCE)5mA.asc


Date: Sat Oct 25 22:31:14 2014
Total elapsed time: 0.093 seconds.

tnom = 27
temp = 27
method = trap
totiter = 1008
traniter = 0
tranpoints = 0
accept = 0
rejected = 0
matrix size = 6
fillins = 0
solver = Normal
Matrix Compiler1: 360 bytes object code size  0.4/0.2/[0.2]
Matrix Compiler2: 462 bytes object code size  0.2/0.3/[0.2]


