Circuit: * Z:\home\matias\Documentos\DispositivosSemiconductores\TP2\LTspice\tbjsiemensIDvsVBE.asc

