Circuit: * Z:\home\matias\Documentos\DispositivosSemiconductores\TP2\LTspice\tbjsiemens(ICvsVCE)5mA.asc


Date: Sat Oct 25 22:34:46 2014
Total elapsed time: 0.061 seconds.

tnom = 27
temp = 27
method = trap
totiter = 1008
traniter = 0
tranpoints = 0
accept = 0
rejected = 0
matrix size = 6
fillins = 0
solver = Normal
Matrix Compiler1: 360 bytes object code size  0.6/0.4/[0.3]
Matrix Compiler2: 462 bytes object code size  0.4/0.4/[0.3]


