Circuit: * Z:\home\matias\Documentos\DispositivosSemiconductores\repo\accittuvaz\TP2\LTspice\tbjsiemensIDvsVBE.asc


Date: Tue Oct 28 16:47:43 2014
Total elapsed time: 0.047 seconds.

tnom = 27
temp = 27
method = trap
totiter = 185
traniter = 0
tranpoints = 0
accept = 0
rejected = 0
matrix size = 7
fillins = 0
solver = Normal
Matrix Compiler1: 312 bytes object code size  0.4/0.3/[0.3]
Matrix Compiler2: 515 bytes object code size  0.3/0.3/[0.3]


