Circuit: * Z:\home\matias\Documentos\DispositivosSemiconductores\repo\accittuvaz\TP2\LTspice\tbjsiemens(ICvsVCE)5mA.asc


Date: Wed Oct 29 00:17:41 2014
Total elapsed time: 0.052 seconds.

tnom = 27
temp = 27
method = trap
totiter = 1008
traniter = 0
tranpoints = 0
accept = 0
rejected = 0
matrix size = 6
fillins = 0
solver = Normal
Matrix Compiler1: 360 bytes object code size  0.6/0.5/[0.4]
Matrix Compiler2: 462 bytes object code size  0.5/0.6/[0.5]


