Circuit: * Z:\home\matias\Documentos\DispositivosSemiconductores\TP2\LTspice\tbjphillips(ICvsVBE).asc


Date: Sat Oct 25 22:22:27 2014
Total elapsed time: 0.082 seconds.

tnom = 27
temp = 27
method = trap
totiter = 185
traniter = 0
tranpoints = 0
accept = 0
rejected = 0
matrix size = 7
fillins = 0
solver = Normal
Matrix Compiler1: 312 bytes object code size  0.3/0.2/[0.2]
Matrix Compiler2: 515 bytes object code size  0.2/0.2/[0.2]


