Circuit: * Z:\home\matias\Documentos\DispositivosSemiconductores\TP1\LTspice\CMOSP_500muA.asc

Model "cmosp": Oxide thickness thinner than recommended for a level 1 MOSFET.
Instance "m1": Length shorter than recommended for a level 1 MOSFET.

Date: Sun Oct 05 00:23:18 2014
Total elapsed time: 0.035 seconds.

tnom = 27
temp = 27
method = trap
totiter = 104
traniter = 0
tranpoints = 0
accept = 0
rejected = 0
matrix size = 4
fillins = 0
solver = Normal
Matrix Compiler1:       7 opcodes  0.2/[0.1]/0.1
Matrix Compiler2: 216 bytes object code size  0.1/0.1/[0.1]


