Circuit: * Z:\home\matias\Documentos\DispositivosSemiconductores\TP1\LTspice\CMOSN_2500muA.asc

Model "cmosn": Oxide thickness thinner than recommended for a level 1 MOSFET.
Instance "m1": Length shorter than recommended for a level 1 MOSFET.

Date: Sun Oct 05 00:33:39 2014
Total elapsed time: 0.036 seconds.

tnom = 27
temp = 27
method = trap
totiter = 106
traniter = 0
tranpoints = 0
accept = 0
rejected = 0
matrix size = 4
fillins = 0
solver = Normal
Matrix Compiler1: 118 bytes object code size  0.2/0.1/[0.1]
Matrix Compiler2: 216 bytes object code size  0.1/0.2/[0.1]


