Circuit: * Z:\home\matias\Documentos\DispositivosSemiconductores\TP1\LTspice\MiModelo_P_2500mua.asc


Date: Sun Oct 05 00:28:02 2014
Total elapsed time: 0.051 seconds.

tnom = 27
temp = 27
method = trap
totiter = 104
traniter = 0
tranpoints = 0
accept = 0
rejected = 0
matrix size = 4
fillins = 0
solver = Normal
Matrix Compiler1: 118 bytes object code size  0.2/0.2/[0.2]
Matrix Compiler2: 216 bytes object code size  0.2/0.2/[0.2]


